6057
  MOE2011           3D

 24 24  0  0  1  0  0  0  0  0999 V2000
   -1.8040   -1.3480   -1.4520 O   0  0  0  0  0  0  0  0  0  0  0  0
    4.1180   -0.7550   -0.3020 O   0  0  0  0  0  0  0  0  0  0  0  0
   -2.9080   -1.4180    0.4940 O   0  0  0  0  0  0  0  0  0  0  0  0
   -3.4270    1.4010   -0.1130 N   0  0  0  0  0  0  0  0  0  0  0  0
   -1.1230    1.1200    0.7710 C   0  0  0  0  0  0  0  0  0  0  0  0
   -2.1210    0.7510   -0.3380 C   0  0  1  0  0  0  0  0  0  0  0  0
    0.2760    0.6180    0.5020 C   0  0  0  0  0  0  0  0  0  0  0  0
    0.7630   -0.5210    1.1610 C   0  0  0  0  0  0  0  0  0  0  0  0
    1.1010    1.2750   -0.4230 C   0  0  0  0  0  0  0  0  0  0  0  0
   -2.3380   -0.7580   -0.3630 C   0  0  0  0  0  0  0  0  0  0  0  0
    2.0520   -0.9950    0.9030 C   0  0  0  0  0  0  0  0  0  0  0  0
    2.3880    0.8020   -0.6810 C   0  0  0  0  0  0  0  0  0  0  0  0
    2.8540   -0.3280   -0.0180 C   0  0  0  0  0  0  0  0  0  0  0  0
   -1.4680    0.7360    1.7410 H   0  0  0  0  0  0  0  0  0  0  0  0
   -1.0750    2.2120    0.8850 H   0  0  0  0  0  0  0  0  0  0  0  0
   -1.7540    1.0750   -1.3180 H   0  0  0  0  0  0  0  0  0  0  0  0
    0.1390   -1.0490    1.8800 H   0  0  0  0  0  0  0  0  0  0  0  0
    0.7460    2.1590   -0.9480 H   0  0  0  0  0  0  0  0  0  0  0  0
   -3.3020    2.4050    0.0150 H   0  0  0  0  0  0  0  0  0  0  0  0
   -3.8350    1.0490    0.7560 H   0  0  0  0  0  0  0  0  0  0  0  0
    2.4060   -1.8780    1.4250 H   0  0  0  0  0  0  0  0  0  0  0  0
    3.0240    1.3120   -1.3980 H   0  0  0  0  0  0  0  0  0  0  0  0
   -2.0040   -2.3010   -1.3510 H   0  0  0  0  0  0  0  0  0  0  0  0
    4.3100   -1.5440    0.2310 H   0  0  0  0  0  0  0  0  0  0  0  0
  1 10  1  0  0  0  0
  1 23  1  0  0  0  0
  2 13  1  0  0  0  0
  2 24  1  0  0  0  0
  3 10  2  0  0  0  0
  4  6  1  0  0  0  0
  4 19  1  0  0  0  0
  4 20  1  0  0  0  0
  5  6  1  0  0  0  0
  5  7  1  0  0  0  0
  5 14  1  0  0  0  0
  5 15  1  0  0  0  0
  6 10  1  0  0  0  0
  6 16  1  0  0  0  0
  7  8  2  0  0  0  0
  7  9  1  0  0  0  0
  8 11  1  0  0  0  0
  8 17  1  0  0  0  0
  9 12  2  0  0  0  0
  9 18  1  0  0  0  0
 11 13  2  0  0  0  0
 11 21  1  0  0  0  0
 12 13  1  0  0  0  0
 12 22  1  0  0  0  0
M  END
$$$$
6305
  MOE2011           3D

 27 28  0  0  1  0  0  0  0  0999 V2000
    3.3330   -1.0310    1.7240 O   0  0  0  0  0  0  0  0  0  0  0  0
    1.7990   -1.8570    0.3230 O   0  0  0  0  0  0  0  0  0  0  0  0
   -1.6050    2.0290    0.4400 N   0  0  0  0  0  0  0  0  0  0  0  0
    3.9100    0.6640   -0.5080 N   0  0  0  0  0  0  0  0  0  0  0  0
    0.1250    0.9650   -0.4840 C   0  0  0  0  0  0  0  0  0  0  0  0
    1.4930    0.6850   -1.0380 C   0  0  0  0  0  0  0  0  0  0  0  0
   -0.9950    0.0720   -0.4340 C   0  0  0  0  0  0  0  0  0  0  0  0
    2.5540    0.4840    0.0540 C   0  0  1  0  0  0  0  0  0  0  0  0
   -2.0580    0.7650    0.1480 C   0  0  0  0  0  0  0  0  0  0  0  0
   -0.2970    2.1620    0.0630 C   0  0  0  0  0  0  0  0  0  0  0  0
   -1.2080   -1.2650   -0.8320 C   0  0  0  0  0  0  0  0  0  0  0  0
   -3.3190    0.1900    0.3530 C   0  0  0  0  0  0  0  0  0  0  0  0
    2.4840   -0.9100    0.6730 C   0  0  0  0  0  0  0  0  0  0  0  0
   -2.4610   -1.8560   -0.6340 C   0  0  0  0  0  0  0  0  0  0  0  0
   -3.5000   -1.1360   -0.0500 C   0  0  0  0  0  0  0  0  0  0  0  0
    1.4580   -0.1800   -1.7120 H   0  0  0  0  0  0  0  0  0  0  0  0
    1.7670    1.5440   -1.6650 H   0  0  0  0  0  0  0  0  0  0  0  0
    2.4080    1.2120    0.8610 H   0  0  0  0  0  0  0  0  0  0  0  0
    0.2240    3.0990    0.2110 H   0  0  0  0  0  0  0  0  0  0  0  0
   -2.1640    2.7530    0.8700 H   0  0  0  0  0  0  0  0  0  0  0  0
   -0.4030   -1.8410   -1.2810 H   0  0  0  0  0  0  0  0  0  0  0  0
   -4.1310    0.7490    0.8070 H   0  0  0  0  0  0  0  0  0  0  0  0
   -2.6200   -2.8880   -0.9370 H   0  0  0  0  0  0  0  0  0  0  0  0
    4.5880    0.5040    0.2410 H   0  0  0  0  0  0  0  0  0  0  0  0
    4.0320    1.6350   -0.7960 H   0  0  0  0  0  0  0  0  0  0  0  0
   -4.4660   -1.6120    0.0960 H   0  0  0  0  0  0  0  0  0  0  0  0
    3.2180   -1.9570    2.0250 H   0  0  0  0  0  0  0  0  0  0  0  0
  1 13  1  0  0  0  0
  1 27  1  0  0  0  0
  2 13  2  0  0  0  0
  3  9  1  0  0  0  0
  3 10  1  0  0  0  0
  3 20  1  0  0  0  0
  4  8  1  0  0  0  0
  4 24  1  0  0  0  0
  4 25  1  0  0  0  0
  5  6  1  0  0  0  0
  5  7  1  0  0  0  0
  5 10  2  0  0  0  0
  6  8  1  0  0  0  0
  6 16  1  0  0  0  0
  6 17  1  0  0  0  0
  7  9  2  0  0  0  0
  7 11  1  0  0  0  0
  8 13  1  0  0  0  0
  8 18  1  0  0  0  0
  9 12  1  0  0  0  0
 10 19  1  0  0  0  0
 11 14  2  0  0  0  0
 11 21  1  0  0  0  0
 12 15  2  0  0  0  0
 12 22  1  0  0  0  0
 14 15  1  0  0  0  0
 14 23  1  0  0  0  0
 15 26  1  0  0  0  0
M  END
$$$$
